packages/bdgd2opendss/bdgd2opendss-1.0.1.tar.gz/bdgd2opendss-1.0.1/tests/dss_models_output/sub__SE001/17_SE001_1/TransformadorMTMTMTBT_202312598_17_SE001_1_------1-----.dss
New "Transformer.TRF_17_771A" phases=1 windings=3 buses=["MRT_278311TRF_17_771A.2" "ET17_771.1.4" "ET17_771.4.2" ] conns=[Wye Wye Wye] kvs=[13.3367912182804 0.22 0.22]  kvas=[10 10 10] %loadloss=1.950000 %noloadloss=0.500000
New "Reactor.TRF_17_771A_R" phases=1 bus1=ET17_771.4 R=15 X=0 basefreq=60
New "Linecode.LC_MRT_TRF_17_771A_1" nphases=1 basefreq=60 r1=15000 x1=0 units=km normamps=0
New "Linecode.LC_MRT_TRF_17_771A_2" nphases=2 basefreq=60 r1=15000 x1=0 units=km normamps=0
New "Linecode.LC_MRT_TRF_17_771A_3" nphases=3 basefreq=60 r1=15000 x1=0 units=km normamps=0
New "Linecode.LC_MRT_TRF_17_771A_4" nphases=4 basefreq=60 r1=15000 x1=0 units=km normamps=0
New "Line.Resist_MTR_TRF_17_771A" phases=1 bus1="278311.2" bus2="MRT_278311TRF_17_771A.2" linecode="LC_MRT_TRF_17_771A_1" length=0.001 units=km 

New "Transformer.TRF_17_3687A" phases=3 windings=2 buses=["784641.1.2.3" "ET17_3687.1.2.3.4"] conns=[Delta Wye] kvs=[23.1 0.38]  kvas=[75 75] %loadloss=3.840000 %noloadloss=0.966667
New "Reactor.TRF_17_3687A_R" phases=1 bus1=ET17_3687.4 R=15 X=0 basefreq=60

New "Transformer.TRF_17_5538A" phases=1 windings=3 buses=["MRT_307101TRF_17_5538A.1" "ET17_5538.1.4" "ET17_5538.4.2" ] conns=[Wye Wye Wye] kvs=[13.3367912182804 0.22 0.22]  kvas=[10 10 10] %loadloss=1.950000 %noloadloss=0.500000
New "Reactor.TRF_17_5538A_R" phases=1 bus1=ET17_5538.4 R=15 X=0 basefreq=60
New "Linecode.LC_MRT_TRF_17_5538A_1" nphases=1 basefreq=60 r1=15000 x1=0 units=km normamps=0
New "Linecode.LC_MRT_TRF_17_5538A_2" nphases=2 basefreq=60 r1=15000 x1=0 units=km normamps=0
New "Linecode.LC_MRT_TRF_17_5538A_3" nphases=3 basefreq=60 r1=15000 x1=0 units=km normamps=0
New "Linecode.LC_MRT_TRF_17_5538A_4" nphases=4 basefreq=60 r1=15000 x1=0 units=km normamps=0
New "Line.Resist_MTR_TRF_17_5538A" phases=1 bus1="307101.1" bus2="MRT_307101TRF_17_5538A.1" linecode="LC_MRT_TRF_17_5538A_1" length=0.001 units=km 

New "Transformer.TRF_17_5409A" phases=3 windings=2 buses=["378351.1.2.3" "ET17_5409.1.2.3.4"] conns=[Delta Wye] kvs=[23.1 0.38]  kvas=[30 30] %loadloss=2.100000 %noloadloss=0.533333
New "Reactor.TRF_17_5409A_R" phases=1 bus1=ET17_5409.4 R=15 X=0 basefreq=60

New "Transformer.TRF_17_3250A" phases=3 windings=2 buses=["620951.1.2.3" "ET17_3250.1.2.3.4"] conns=[Delta Wye] kvs=[23.1 0.38]  kvas=[75 75] %loadloss=3.840000 %noloadloss=0.966667
New "Reactor.TRF_17_3250A_R" phases=1 bus1=ET17_3250.4 R=15 X=0 basefreq=60

New "Transformer.TRF_17_4459A" phases=3 windings=2 buses=["618071.1.2.3" "ET17_4459.1.2.3.4"] conns=[Delta Wye] kvs=[23.1 0.38]  kvas=[75 75] %loadloss=3.840000 %noloadloss=0.966667
New "Reactor.TRF_17_4459A_R" phases=1 bus1=ET17_4459.4 R=15 X=0 basefreq=60

New "Transformer.TRF_17_5495A" phases=3 windings=2 buses=["687351.1.2.3" "ET17_5495.1.2.3.4"] conns=[Delta Wye] kvs=[23.1 0.38]  kvas=[15 15] %loadloss=2.500000 %noloadloss=0.633333
New "Reactor.TRF_17_5495A_R" phases=1 bus1=ET17_5495.4 R=15 X=0 basefreq=60

New "Transformer.TRF_17_4754A" phases=3 windings=2 buses=["273031.1.2.3" "ET17_4754.1.2.3.4"] conns=[Delta Wye] kvs=[23.1 0.38]  kvas=[75 75] %loadloss=3.840000 %noloadloss=0.966667
New "Reactor.TRF_17_4754A_R" phases=1 bus1=ET17_4754.4 R=15 X=0 basefreq=60

New "Transformer.TRF_17_1690A" phases=3 windings=2 buses=["297531.1.2.3" "ET17_1690.1.2.3.4"] conns=[Delta Wye] kvs=[23.1 0.38]  kvas=[112.5 112.5] %loadloss=1.475556 %noloadloss=0.377778
New "Reactor.TRF_17_1690A_R" phases=1 bus1=ET17_1690.4 R=15 X=0 basefreq=60

New "Transformer.TRF_17_2847A" phases=1 windings=3 buses=["MRT_278221TRF_17_2847A.2" "ET17_2847.1.4" "ET17_2847.4.2" ] conns=[Wye Wye Wye] kvs=[13.3367912182804 0.22 0.22]  kvas=[15 15 15] %loadloss=1.766667 %noloadloss=0.433333
New "Reactor.TRF_17_2847A_R" phases=1 bus1=ET17_2847.4 R=15 X=0 basefreq=60
New "Linecode.LC_MRT_TRF_17_2847A_1" nphases=1 basefreq=60 r1=15000 x1=0 units=km normamps=0
New "Linecode.LC_MRT_TRF_17_2847A_2" nphases=2 basefreq=60 r1=15000 x1=0 units=km normamps=0
New "Linecode.LC_MRT_TRF_17_2847A_3" nphases=3 basefreq=60 r1=15000 x1=0 units=km normamps=0
New "Linecode.LC_MRT_TRF_17_2847A_4" nphases=4 basefreq=60 r1=15000 x1=0 units=km normamps=0
New "Line.Resist_MTR_TRF_17_2847A" phases=1 bus1="278221.2" bus2="MRT_278221TRF_17_2847A.2" linecode="LC_MRT_TRF_17_2847A_1" length=0.001 units=km 

New "Transformer.TRF_17_2390A" phases=3 windings=2 buses=["377171.1.2.3" "ET17_2390.1.2.3.4"] conns=[Delta Wye] kvs=[23.1 0.38]  kvas=[30 30] %loadloss=2.100000 %noloadloss=0.533333
New "Reactor.TRF_17_2390A_R" phases=1 bus1=ET17_2390.4 R=15 X=0 basefreq=60

New "Transformer.TRF_17_491A" phases=1 windings=3 buses=["MRT_268361TRF_17_491A.1" "ET17_491.1.4" "ET17_491.4.2" ] conns=[Wye Wye Wye] kvs=[13.3367912182804 0.22 0.22]  kvas=[25 25 25] %loadloss=1.560000 %noloadloss=0.360000
New "Reactor.TRF_17_491A_R" phases=1 bus1=ET17_491.4 R=15 X=0 basefreq=60
New "Linecode.LC_MRT_TRF_17_491A_1" nphases=1 basefreq=60 r1=15000 x1=0 units=km normamps=0
New "Linecode.LC_MRT_TRF_17_491A_2" nphases=2 basefreq=60 r1=15000 x1=0 units=km normamps=0
New "Linecode.LC_MRT_TRF_17_491A_3" nphases=3 basefreq=60 r1=15000 x1=0 units=km normamps=0
New "Linecode.LC_MRT_TRF_17_491A_4" nphases=4 basefreq=60 r1=15000 x1=0 units=km normamps=0
New "Line.Resist_MTR_TRF_17_491A" phases=1 bus1="268361.1" bus2="MRT_268361TRF_17_491A.1" linecode="LC_MRT_TRF_17_491A_1" length=0.001 units=km 

New "Transformer.TRF_17_4516A" phases=3 windings=2 buses=["672791.1.2.3" "ET17_4516.1.2.3.4"] conns=[Delta Wye] kvs=[23.1 0.38]  kvas=[30 30] %loadloss=2.100000 %noloadloss=0.533333
New "Reactor.TRF_17_4516A_R" phases=1 bus1=ET17_4516.4 R=15 X=0 basefreq=60

New "Transformer.TRF_17_4311A" phases=3 windings=2 buses=["663171.1.2.3" "ET17_4311.1.2.3.4"] conns=[Delta Wye] kvs=[23.1 0.38]  kvas=[15 15] %loadloss=2.500000 %noloadloss=0.633333
New "Reactor.TRF_17_4311A_R" phases=1 bus1=ET17_4311.4 R=15 X=0 basefreq=60

New "Transformer.TRF_17_4269A" phases=3 windings=2 buses=["661051.1.2.3" "ET17_4269.1.2.3.4"] conns=[Delta Wye] kvs=[23.1 0.38]  kvas=[75 75] %loadloss=3.840000 %noloadloss=0.966667
New "Reactor.TRF_17_4269A_R" phases=1 bus1=ET17_4269.4 R=15 X=0 basefreq=60

New "Transformer.TRF_17_4309A" phases=3 windings=2 buses=["661371.1.2.3" "ET17_4309.1.2.3.4"] conns=[Delta Wye] kvs=[23.1 0.38]  kvas=[15 15] %loadloss=2.500000 %noloadloss=0.633333
New "Reactor.TRF_17_4309A_R" phases=1 bus1=ET17_4309.4 R=15 X=0 basefreq=60

New "Transformer.TRF_17_1609A" phases=3 windings=2 buses=["279321.1.2.3" "ET17_1609.1.2.3.4"] conns=[Delta Wye] kvs=[23.1 0.38]  kvas=[112.5 112.5] %loadloss=1.475556 %noloadloss=0.377778
New "Reactor.TRF_17_1609A_R" phases=1 bus1=ET17_1609.4 R=15 X=0 basefreq=60

New "Transformer.TRF_17_2583A" phases=3 windings=2 buses=["307111.1.2.3" "ET17_2583.1.2.3.4"] conns=[Delta Wye] kvs=[23.1 0.38]  kvas=[30 30] %loadloss=2.100000 %noloadloss=0.533333
New "Reactor.TRF_17_2583A_R" phases=1 bus1=ET17_2583.4 R=15 X=0 basefreq=60

New "Transformer.TRF_17_4814A" phases=3 windings=2 buses=["718141.1.2.3" "ET17_4814.1.2.3.4"] conns=[Delta Wye] kvs=[23.1 0.38]  kvas=[45 45] %loadloss=1.866667 %noloadloss=0.477778
New "Reactor.TRF_17_4814A_R" phases=1 bus1=ET17_4814.4 R=15 X=0 basefreq=60

New "Transformer.TRF_17_2370A" phases=3 windings=2 buses=["269231.1.2.3" "ET17_2370.1.2.3.4"] conns=[Delta Wye] kvs=[23.1 0.38]  kvas=[45 45] %loadloss=1.866667 %noloadloss=0.477778
New "Reactor.TRF_17_2370A_R" phases=1 bus1=ET17_2370.4 R=15 X=0 basefreq=60

New "Transformer.TRF_17_2940A" phases=3 windings=2 buses=["272121.1.2.3" "ET17_2940.1.2.3.4"] conns=[Delta Wye] kvs=[23.1 0.38]  kvas=[15 15] %loadloss=2.500000 %noloadloss=0.633333
New "Reactor.TRF_17_2940A_R" phases=1 bus1=ET17_2940.4 R=15 X=0 basefreq=60

New "Transformer.TRF_17_3694A" phases=3 windings=2 buses=["606531.1.2.3" "ET17_3694.1.2.3.4"] conns=[Delta Wye] kvs=[23.1 0.38]  kvas=[75 75] %loadloss=3.840000 %noloadloss=0.966667
New "Reactor.TRF_17_3694A_R" phases=1 bus1=ET17_3694.4 R=15 X=0 basefreq=60

New "Transformer.TRF_17_28A" phases=3 windings=2 buses=["360421.1.2.3" "ET17_28.1.2.3.4"] conns=[Delta Wye] kvs=[23.1 0.38]  kvas=[112.5 112.5] %loadloss=1.475556 %noloadloss=0.377778
New "Reactor.TRF_17_28A_R" phases=1 bus1=ET17_28.4 R=15 X=0 basefreq=60

New "Transformer.TRF_17_3943A" phases=3 windings=2 buses=["288371.1.2.3" "ET17_3943.1.2.3.4"] conns=[Delta Wye] kvs=[23.1 0.38]  kvas=[30 30] %loadloss=2.100000 %noloadloss=0.533333
New "Reactor.TRF_17_3943A_R" phases=1 bus1=ET17_3943.4 R=15 X=0 basefreq=60

New "Transformer.TRF_17_3253A" phases=3 windings=2 buses=["267421.1.2.3" "ET17_3253.1.2.3.4"] conns=[Delta Wye] kvs=[23.1 0.38]  kvas=[75 75] %loadloss=3.840000 %noloadloss=0.966667
New "Reactor.TRF_17_3253A_R" phases=1 bus1=ET17_3253.4 R=15 X=0 basefreq=60

New "Transformer.TRF_17_1953A" phases=1 windings=3 buses=["MRT_250851TRF_17_1953A.2" "ET17_1953.1.4" "ET17_1953.4.2" ] conns=[Wye Wye Wye] kvs=[13.3367912182804 0.22 0.22]  kvas=[5 5 5] %loadloss=2.100000 %noloadloss=0.700000
New "Reactor.TRF_17_1953A_R" phases=1 bus1=ET17_1953.4 R=15 X=0 basefreq=60
New "Linecode.LC_MRT_TRF_17_1953A_1" nphases=1 basefreq=60 r1=15000 x1=0 units=km normamps=0
New "Linecode.LC_MRT_TRF_17_1953A_2" nphases=2 basefreq=60 r1=15000 x1=0 units=km normamps=0
New "Linecode.LC_MRT_TRF_17_1953A_3" nphases=3 basefreq=60 r1=15000 x1=0 units=km normamps=0
New "Linecode.LC_MRT_TRF_17_1953A_4" nphases=4 basefreq=60 r1=15000 x1=0 units=km normamps=0
New "Line.Resist_MTR_TRF_17_1953A" phases=1 bus1="250851.2" bus2="MRT_250851TRF_17_1953A.2" linecode="LC_MRT_TRF_17_1953A_1" length=0.001 units=km 

New "Transformer.TRF_17_2222A" phases=3 windings=2 buses=["295461.1.2.3" "ET17_2222.1.2.3.4"] conns=[Delta Wye] kvs=[23.1 0.38]  kvas=[15 15] %loadloss=2.500000 %noloadloss=0.633333
New "Reactor.TRF_17_2222A_R" phases=1 bus1=ET17_2222.4 R=15 X=0 basefreq=60

New "Transformer.TRF_17_296A" phases=3 windings=2 buses=["219541.1.2.3" "ET17_296.1.2.3.4"] conns=[Delta Wye] kvs=[23.1 0.38]  kvas=[112.5 112.5] %loadloss=1.475556 %noloadloss=0.377778
New "Reactor.TRF_17_296A_R" phases=1 bus1=ET17_296.4 R=15 X=0 basefreq=60

New "Transformer.TRF_17_1713A" phases=3 windings=2 buses=["296011.1.2.3" "ET17_1713.1.2.3.4"] conns=[Delta Wye] kvs=[23.1 0.38]  kvas=[15 15] %loadloss=2.500000 %noloadloss=0.633333
New "Reactor.TRF_17_1713A_R" phases=1 bus1=ET17_1713.4 R=15 X=0 basefreq=60

New "Transformer.TRF_17_6525A" phases=3 windings=2 buses=["297591.1.2.3" "ET17_6525.1.2.3.4"] conns=[Delta Wye] kvs=[23.1 0.38]  kvas=[75 75] %loadloss=3.840000 %noloadloss=0.966667
New "Reactor.TRF_17_6525A_R" phases=1 bus1=ET17_6525.4 R=15 X=0 basefreq=60

New "Transformer.TRF_17_6449A" phases=1 windings=3 buses=["MRT_814871TRF_17_6449A.2" "ET17_6449.1.4" "ET17_6449.4.2" ] conns=[Wye Wye Wye] kvs=[13.3367912182804 0.22 0.22]  kvas=[25 25 25] %loadloss=1.560000 %noloadloss=0.360000
New "Reactor.TRF_17_6449A_R" phases=1 bus1=ET17_6449.4 R=15 X=0 basefreq=60
New "Linecode.LC_MRT_TRF_17_6449A_1" nphases=1 basefreq=60 r1=15000 x1=0 units=km normamps=0
New "Linecode.LC_MRT_TRF_17_6449A_2" nphases=2 basefreq=60 r1=15000 x1=0 units=km normamps=0
New "Linecode.LC_MRT_TRF_17_6449A_3" nphases=3 basefreq=60 r1=15000 x1=0 units=km normamps=0
New "Linecode.LC_MRT_TRF_17_6449A_4" nphases=4 basefreq=60 r1=15000 x1=0 units=km normamps=0
New "Line.Resist_MTR_TRF_17_6449A" phases=1 bus1="814871.2" bus2="MRT_814871TRF_17_6449A.2" linecode="LC_MRT_TRF_17_6449A_1" length=0.001 units=km 

New "Transformer.TRF_17_6446A" phases=3 windings=2 buses=["814941.1.2.3" "ET17_6446.1.2.3.4"] conns=[Delta Wye] kvs=[23.1 0.38]  kvas=[112.5 112.5] %loadloss=1.475556 %noloadloss=0.377778
New "Reactor.TRF_17_6446A_R" phases=1 bus1=ET17_6446.4 R=15 X=0 basefreq=60

New "Transformer.TRF_17_4535A" phases=3 windings=2 buses=["671351.1.2.3" "ET17_4535.1.2.3.4"] conns=[Delta Wye] kvs=[23.1 0.38]  kvas=[30 30] %loadloss=2.100000 %noloadloss=0.533333
New "Reactor.TRF_17_4535A_R" phases=1 bus1=ET17_4535.4 R=15 X=0 basefreq=60

New "Transformer.TRF_17_1842A" phases=3 windings=2 buses=["272141.1.2.3" "ET17_1842.1.2.3.4"] conns=[Delta Wye] kvs=[23.1 0.38]  kvas=[75 75] %loadloss=3.840000 %noloadloss=0.966667
New "Reactor.TRF_17_1842A_R" phases=1 bus1=ET17_1842.4 R=15 X=0 basefreq=60

New "Transformer.TRF_17_6097A" phases=1 windings=3 buses=["MRT_792141TRF_17_6097A.1" "ET17_6097.1.4" "ET17_6097.4.2" ] conns=[Wye Wye Wye] kvs=[13.3367912182804 0.22 0.22]  kvas=[15 15 15] %loadloss=1.766667 %noloadloss=0.433333
New "Reactor.TRF_17_6097A_R" phases=1 bus1=ET17_6097.4 R=15 X=0 basefreq=60
New "Linecode.LC_MRT_TRF_17_6097A_1" nphases=1 basefreq=60 r1=15000 x1=0 units=km normamps=0
New "Linecode.LC_MRT_TRF_17_6097A_2" nphases=2 basefreq=60 r1=15000 x1=0 units=km normamps=0
New "Linecode.LC_MRT_TRF_17_6097A_3" nphases=3 basefreq=60 r1=15000 x1=0 units=km normamps=0
New "Linecode.LC_MRT_TRF_17_6097A_4" nphases=4 basefreq=60 r1=15000 x1=0 units=km normamps=0
New "Line.Resist_MTR_TRF_17_6097A" phases=1 bus1="792141.1" bus2="MRT_792141TRF_17_6097A.1" linecode="LC_MRT_TRF_17_6097A_1" length=0.001 units=km 

New "Transformer.TRF_17_6389A" phases=1 windings=3 buses=["MRT_811471TRF_17_6389A.2" "ET17_6389.1.4" "ET17_6389.4.2" ] conns=[Wye Wye Wye] kvs=[13.3367912182804 0.22 0.22]  kvas=[15 15 15] %loadloss=1.766667 %noloadloss=0.433333
New "Reactor.TRF_17_6389A_R" phases=1 bus1=ET17_6389.4 R=15 X=0 basefreq=60
New "Linecode.LC_MRT_TRF_17_6389A_1" nphases=1 basefreq=60 r1=15000 x1=0 units=km normamps=0
New "Linecode.LC_MRT_TRF_17_6389A_2" nphases=2 basefreq=60 r1=15000 x1=0 units=km normamps=0
New "Linecode.LC_MRT_TRF_17_6389A_3" nphases=3 basefreq=60 r1=15000 x1=0 units=km normamps=0
New "Linecode.LC_MRT_TRF_17_6389A_4" nphases=4 basefreq=60 r1=15000 x1=0 units=km normamps=0
New "Line.Resist_MTR_TRF_17_6389A" phases=1 bus1="811471.2" bus2="MRT_811471TRF_17_6389A.2" linecode="LC_MRT_TRF_17_6389A_1" length=0.001 units=km 

New "Transformer.TRF_17_6251A" phases=3 windings=2 buses=["802311.1.2.3" "ET17_6251.1.2.3.4"] conns=[Delta Wye] kvs=[23.1 0.38]  kvas=[15 15] %loadloss=2.500000 %noloadloss=0.633333
New "Reactor.TRF_17_6251A_R" phases=1 bus1=ET17_6251.4 R=15 X=0 basefreq=60

New "Transformer.TRF_17_2649A" phases=3 windings=2 buses=["788021.1.2.3" "ET17_2649.1.2.3.4"] conns=[Delta Wye] kvs=[23.1 0.38]  kvas=[150 150] %loadloss=1.393333 %noloadloss=0.346667
New "Reactor.TRF_17_2649A_R" phases=1 bus1=ET17_2649.4 R=15 X=0 basefreq=60

New "Transformer.TRF_17_6214A" phases=3 windings=2 buses=["798491.1.2.3" "ET17_6214.1.2.3.4"] conns=[Delta Wye] kvs=[23.1 0.38]  kvas=[15 15] %loadloss=2.500000 %noloadloss=0.633333
New "Reactor.TRF_17_6214A_R" phases=1 bus1=ET17_6214.4 R=15 X=0 basefreq=60

New "Transformer.TRF_17_6339A" phases=3 windings=2 buses=["811131.1.2.3" "ET17_6339.1.2.3.4"] conns=[Delta Wye] kvs=[23.1 0.38]  kvas=[15 15] %loadloss=2.500000 %noloadloss=0.633333
New "Reactor.TRF_17_6339A_R" phases=1 bus1=ET17_6339.4 R=15 X=0 basefreq=60

New "Transformer.TRF_17_787A" phases=3 windings=2 buses=["239521.1.2.3" "ET17_787.1.2.3.4"] conns=[Delta Wye] kvs=[23.1 0.38]  kvas=[30 30] %loadloss=2.100000 %noloadloss=0.533333
New "Reactor.TRF_17_787A_R" phases=1 bus1=ET17_787.4 R=15 X=0 basefreq=60

New "Transformer.TRF_17_6343A" phases=3 windings=2 buses=["376391.1.2.3" "ET17_6343.1.2.3.4"] conns=[Delta Wye] kvs=[23.1 0.38]  kvas=[112.5 112.5] %loadloss=1.475556 %noloadloss=0.377778
New "Reactor.TRF_17_6343A_R" phases=1 bus1=ET17_6343.4 R=15 X=0 basefreq=60

New "Transformer.TRF_17_4757A" phases=3 windings=2 buses=["329311.1.2.3" "ET17_4757.1.2.3.4"] conns=[Delta Wye] kvs=[23.1 0.38]  kvas=[225 225] %loadloss=1.280000 %noloadloss=0.322222
New "Reactor.TRF_17_4757A_R" phases=1 bus1=ET17_4757.4 R=15 X=0 basefreq=60

New "Transformer.TRF_17_4758A" phases=3 windings=2 buses=["329321.1.2.3" "ET17_4758.1.2.3.4"] conns=[Delta Wye] kvs=[23.1 0.38]  kvas=[225 225] %loadloss=1.280000 %noloadloss=0.322222
New "Reactor.TRF_17_4758A_R" phases=1 bus1=ET17_4758.4 R=15 X=0 basefreq=60

New "Transformer.TRF_17_492A" phases=3 windings=2 buses=["753131.1.2.3" "ET17_492.1.2.3.4"] conns=[Delta Wye] kvs=[23.1 0.38]  kvas=[45 45] %loadloss=1.866667 %noloadloss=0.477778
New "Reactor.TRF_17_492A_R" phases=1 bus1=ET17_492.4 R=15 X=0 basefreq=60

New "Transformer.TRF_17_5542A" phases=3 windings=2 buses=["268281.1.2.3" "ET17_5542.1.2.3.4"] conns=[Delta Wye] kvs=[23.1 0.38]  kvas=[15 15] %loadloss=2.500000 %noloadloss=0.633333
New "Reactor.TRF_17_5542A_R" phases=1 bus1=ET17_5542.4 R=15 X=0 basefreq=60

New "Transformer.TRF_17_5367A" phases=3 windings=2 buses=["787861.1.2.3" "ET17_5367.1.2.3.4"] conns=[Delta Wye] kvs=[23.1 0.38]  kvas=[45 45] %loadloss=1.866667 %noloadloss=0.477778
New "Reactor.TRF_17_5367A_R" phases=1 bus1=ET17_5367.4 R=15 X=0 basefreq=60

New "Transformer.TRF_17_3846A" phases=3 windings=2 buses=["651461.1.2.3" "ET17_3846.1.2.3.4"] conns=[Delta Wye] kvs=[23.1 0.38]  kvas=[112.5 112.5] %loadloss=1.475556 %noloadloss=0.377778
New "Reactor.TRF_17_3846A_R" phases=1 bus1=ET17_3846.4 R=15 X=0 basefreq=60

New "Transformer.TRF_17_5882A" phases=3 windings=2 buses=["769741.1.2.3" "ET17_5882.1.2.3.4"] conns=[Delta Wye] kvs=[23.1 0.38]  kvas=[75 75] %loadloss=3.840000 %noloadloss=0.966667
New "Reactor.TRF_17_5882A_R" phases=1 bus1=ET17_5882.4 R=15 X=0 basefreq=60

New "Transformer.TRF_17_5648A" phases=3 windings=2 buses=["682181.1.2.3" "ET17_5648.1.2.3.4"] conns=[Delta Wye] kvs=[23.1 0.38]  kvas=[30 30] %loadloss=2.100000 %noloadloss=0.533333
New "Reactor.TRF_17_5648A_R" phases=1 bus1=ET17_5648.4 R=15 X=0 basefreq=60

New "Transformer.TRF_17_6026A" phases=3 windings=2 buses=["255621.1.2.3" "ET17_6026.1.2.3.4"] conns=[Delta Wye] kvs=[23.1 0.38]  kvas=[75 75] %loadloss=3.840000 %noloadloss=0.966667
New "Reactor.TRF_17_6026A_R" phases=1 bus1=ET17_6026.4 R=15 X=0 basefreq=60

New "Transformer.TRF_17_4587A" phases=3 windings=2 buses=["785061.1.2.3" "ET17_4587.1.2.3.4"] conns=[Delta Wye] kvs=[23.1 0.38]  kvas=[75 75] %loadloss=3.840000 %noloadloss=0.966667
New "Reactor.TRF_17_4587A_R" phases=1 bus1=ET17_4587.4 R=15 X=0 basefreq=60

New "Transformer.TRF_17_5384A" phases=3 windings=2 buses=["746891.1.2.3" "ET17_5384.1.2.3.4"] conns=[Delta Wye] kvs=[23.1 0.38]  kvas=[45 45] %loadloss=1.866667 %noloadloss=0.477778
New "Reactor.TRF_17_5384A_R" phases=1 bus1=ET17_5384.4 R=15 X=0 basefreq=60

New "Transformer.TRF_17_5951A" phases=1 windings=3 buses=["MRT_278271TRF_17_5951A.1" "ET17_5951.1.4" "ET17_5951.4.2" ] conns=[Wye Wye Wye] kvs=[13.3367912182804 0.22 0.22]  kvas=[15 15 15] %loadloss=1.766667 %noloadloss=0.433333
New "Reactor.TRF_17_5951A_R" phases=1 bus1=ET17_5951.4 R=15 X=0 basefreq=60
New "Linecode.LC_MRT_TRF_17_5951A_1" nphases=1 basefreq=60 r1=15000 x1=0 units=km normamps=0
New "Linecode.LC_MRT_TRF_17_5951A_2" nphases=2 basefreq=60 r1=15000 x1=0 units=km normamps=0
New "Linecode.LC_MRT_TRF_17_5951A_3" nphases=3 basefreq=60 r1=15000 x1=0 units=km normamps=0
New "Linecode.LC_MRT_TRF_17_5951A_4" nphases=4 basefreq=60 r1=15000 x1=0 units=km normamps=0
New "Line.Resist_MTR_TRF_17_5951A" phases=1 bus1="278271.1" bus2="MRT_278271TRF_17_5951A.1" linecode="LC_MRT_TRF_17_5951A_1" length=0.001 units=km 

New "Transformer.TRF_17_2121A" phases=3 windings=2 buses=["218911.1.2.3" "ET17_2121.1.2.3.4"] conns=[Delta Wye] kvs=[23.1 0.38]  kvas=[75 75] %loadloss=3.840000 %noloadloss=0.966667
New "Reactor.TRF_17_2121A_R" phases=1 bus1=ET17_2121.4 R=15 X=0 basefreq=60

New "Transformer.TRF_17_3893A" phases=3 windings=2 buses=["639521.1.2.3" "ET17_3893.1.2.3.4"] conns=[Delta Wye] kvs=[23.1 0.38]  kvas=[112.5 112.5] %loadloss=1.475556 %noloadloss=0.377778
New "Reactor.TRF_17_3893A_R" phases=1 bus1=ET17_3893.4 R=15 X=0 basefreq=60

New "Transformer.TRF_17_509A" phases=3 windings=2 buses=["297711.1.2.3" "ET17_509.1.2.3.4"] conns=[Delta Wye] kvs=[23.1 0.38]  kvas=[75 75] %loadloss=3.840000 %noloadloss=0.966667
New "Reactor.TRF_17_509A_R" phases=1 bus1=ET17_509.4 R=15 X=0 basefreq=60

New "Transformer.TRF_17_428A" phases=1 windings=3 buses=["MRT_239601TRF_17_428A.2" "ET17_428.1.4" "ET17_428.4.2" ] conns=[Wye Wye Wye] kvs=[13.3367912182804 0.22 0.22]  kvas=[10 10 10] %loadloss=1.950000 %noloadloss=0.500000
New "Reactor.TRF_17_428A_R" phases=1 bus1=ET17_428.4 R=15 X=0 basefreq=60
New "Linecode.LC_MRT_TRF_17_428A_1" nphases=1 basefreq=60 r1=15000 x1=0 units=km normamps=0
New "Linecode.LC_MRT_TRF_17_428A_2" nphases=2 basefreq=60 r1=15000 x1=0 units=km normamps=0
New "Linecode.LC_MRT_TRF_17_428A_3" nphases=3 basefreq=60 r1=15000 x1=0 units=km normamps=0
New "Linecode.LC_MRT_TRF_17_428A_4" nphases=4 basefreq=60 r1=15000 x1=0 units=km normamps=0
New "Line.Resist_MTR_TRF_17_428A" phases=1 bus1="239601.2" bus2="MRT_239601TRF_17_428A.2" linecode="LC_MRT_TRF_17_428A_1" length=0.001 units=km 

New "Transformer.TRF_17_5869A" phases=3 windings=2 buses=["768641.1.2.3" "ET17_5869.1.2.3.4"] conns=[Delta Wye] kvs=[23.1 0.38]  kvas=[112.5 112.5] %loadloss=1.475556 %noloadloss=0.377778
New "Reactor.TRF_17_5869A_R" phases=1 bus1=ET17_5869.4 R=15 X=0 basefreq=60

New "Transformer.TRF_17_3655A" phases=3 windings=2 buses=["278411.1.2.3" "ET17_3655.1.2.3.4"] conns=[Delta Wye] kvs=[23.1 0.38]  kvas=[15 15] %loadloss=2.500000 %noloadloss=0.633333
New "Reactor.TRF_17_3655A_R" phases=1 bus1=ET17_3655.4 R=15 X=0 basefreq=60

New "Transformer.TRF_17_5796A" phases=3 windings=2 buses=["765971.1.2.3" "ET17_5796.1.2.3.4"] conns=[Delta Wye] kvs=[23.1 0.38]  kvas=[45 45] %loadloss=1.866667 %noloadloss=0.477778
New "Reactor.TRF_17_5796A_R" phases=1 bus1=ET17_5796.4 R=15 X=0 basefreq=60

New "Transformer.TRF_17_5814A" phases=3 windings=2 buses=["766011.1.2.3" "ET17_5814.1.2.3.4"] conns=[Delta Wye] kvs=[23.1 0.38]  kvas=[30 30] %loadloss=2.100000 %noloadloss=0.533333
New "Reactor.TRF_17_5814A_R" phases=1 bus1=ET17_5814.4 R=15 X=0 basefreq=60

New "Transformer.TRF_17_5803A" phases=3 windings=2 buses=["766981.1.2.3" "ET17_5803.1.2.3.4"] conns=[Delta Wye] kvs=[23.1 0.38]  kvas=[30 30] %loadloss=2.100000 %noloadloss=0.533333
New "Reactor.TRF_17_5803A_R" phases=1 bus1=ET17_5803.4 R=15 X=0 basefreq=60

New "Transformer.TRF_17_3131A" phases=3 windings=2 buses=["298561.1.2.3" "ET17_3131.1.2.3.4"] conns=[Delta Wye] kvs=[23.1 0.38]  kvas=[30 30] %loadloss=2.100000 %noloadloss=0.533333
New "Reactor.TRF_17_3131A_R" phases=1 bus1=ET17_3131.4 R=15 X=0 basefreq=60

New "Transformer.TRF_17_5707A" phases=3 windings=2 buses=["310831.1.2.3" "ET17_5707.1.2.3.4"] conns=[Delta Wye] kvs=[23.1 0.38]  kvas=[150 150] %loadloss=1.393333 %noloadloss=0.346667
New "Reactor.TRF_17_5707A_R" phases=1 bus1=ET17_5707.4 R=15 X=0 basefreq=60

New "Transformer.TRF_17_5726A" phases=3 windings=2 buses=["760441.1.2.3" "ET17_5726.1.2.3.4"] conns=[Delta Wye] kvs=[23.1 0.38]  kvas=[30 30] %loadloss=2.100000 %noloadloss=0.533333
New "Reactor.TRF_17_5726A_R" phases=1 bus1=ET17_5726.4 R=15 X=0 basefreq=60

New "Transformer.TRF_17_5090A" phases=3 windings=2 buses=["268201.1.2.3" "ET17_5090.1.2.3.4"] conns=[Delta Wye] kvs=[23.1 0.38]  kvas=[45 45] %loadloss=1.866667 %noloadloss=0.477778
New "Reactor.TRF_17_5090A_R" phases=1 bus1=ET17_5090.4 R=15 X=0 basefreq=60

New "Transformer.TRF_17_4746A" phases=3 windings=2 buses=["200501.1.2.3" "ET17_4746.1.2.3.4"] conns=[Delta Wye] kvs=[23.1 0.38]  kvas=[225 225] %loadloss=1.280000 %noloadloss=0.322222
New "Reactor.TRF_17_4746A_R" phases=1 bus1=ET17_4746.4 R=15 X=0 basefreq=60

New "Transformer.TRF_17_5543A" phases=1 windings=3 buses=["MRT_268231TRF_17_5543A.1" "ET17_5543.1.4" "ET17_5543.4.2" ] conns=[Wye Wye Wye] kvs=[13.3367912182804 0.22 0.22]  kvas=[25 25 25] %loadloss=1.560000 %noloadloss=0.360000
New "Reactor.TRF_17_5543A_R" phases=1 bus1=ET17_5543.4 R=15 X=0 basefreq=60
New "Linecode.LC_MRT_TRF_17_5543A_1" nphases=1 basefreq=60 r1=15000 x1=0 units=km normamps=0
New "Linecode.LC_MRT_TRF_17_5543A_2" nphases=2 basefreq=60 r1=15000 x1=0 units=km normamps=0
New "Linecode.LC_MRT_TRF_17_5543A_3" nphases=3 basefreq=60 r1=15000 x1=0 units=km normamps=0
New "Linecode.LC_MRT_TRF_17_5543A_4" nphases=4 basefreq=60 r1=15000 x1=0 units=km normamps=0
New "Line.Resist_MTR_TRF_17_5543A" phases=1 bus1="268231.1" bus2="MRT_268231TRF_17_5543A.1" linecode="LC_MRT_TRF_17_5543A_1" length=0.001 units=km 

New "Transformer.TRF_17_2896A" phases=3 windings=2 buses=["320471.1.2.3" "ET17_2896.1.2.3.4"] conns=[Delta Wye] kvs=[23.1 0.38]  kvas=[15 15] %loadloss=2.500000 %noloadloss=0.633333
New "Reactor.TRF_17_2896A_R" phases=1 bus1=ET17_2896.4 R=15 X=0 basefreq=60

New "Transformer.TRF_17_5781A" phases=3 windings=2 buses=["764041.1.2.3" "ET17_5781.1.2.3.4"] conns=[Delta Wye] kvs=[23.1 0.38]  kvas=[30 30] %loadloss=2.100000 %noloadloss=0.533333
New "Reactor.TRF_17_5781A_R" phases=1 bus1=ET17_5781.4 R=15 X=0 basefreq=60

New "Transformer.TRF_17_2665A" phases=3 windings=2 buses=["549661.1.2.3" "ET17_2665.1.2.3.4"] conns=[Delta Wye] kvs=[23.1 0.38]  kvas=[15 15] %loadloss=0.000000 %noloadloss=0.000000
New "Reactor.TRF_17_2665A_R" phases=1 bus1=ET17_2665.4 R=15 X=0 basefreq=60

New "Transformer.TRF_17_2963A" phases=3 windings=2 buses=["625021.1.2.3" "ET17_2963.1.2.3.4"] conns=[Delta Wye] kvs=[23.1 0.38]  kvas=[45 45] %loadloss=1.866667 %noloadloss=0.477778
New "Reactor.TRF_17_2963A_R" phases=1 bus1=ET17_2963.4 R=15 X=0 basefreq=60

New "Transformer.TRF_17_3181A" phases=3 windings=2 buses=["476591.1.2.3" "ET17_3181.1.2.3.4"] conns=[Delta Wye] kvs=[23.1 0.38]  kvas=[30 30] %loadloss=2.100000 %noloadloss=0.533333
New "Reactor.TRF_17_3181A_R" phases=1 bus1=ET17_3181.4 R=15 X=0 basefreq=60

New "Transformer.TRF_17_4332A" phases=1 windings=3 buses=["MRT_250941TRF_17_4332A.2" "ET17_4332.1.4" "ET17_4332.4.2" ] conns=[Wye Wye Wye] kvs=[13.3367912182804 0.22 0.22]  kvas=[15 15 15] %loadloss=1.766667 %noloadloss=0.433333
New "Reactor.TRF_17_4332A_R" phases=1 bus1=ET17_4332.4 R=15 X=0 basefreq=60
New "Linecode.LC_MRT_TRF_17_4332A_1" nphases=1 basefreq=60 r1=15000 x1=0 units=km normamps=0
New "Linecode.LC_MRT_TRF_17_4332A_2" nphases=2 basefreq=60 r1=15000 x1=0 units=km normamps=0
New "Linecode.LC_MRT_TRF_17_4332A_3" nphases=3 basefreq=60 r1=15000 x1=0 units=km normamps=0
New "Linecode.LC_MRT_TRF_17_4332A_4" nphases=4 basefreq=60 r1=15000 x1=0 units=km normamps=0
New "Line.Resist_MTR_TRF_17_4332A" phases=1 bus1="250941.2" bus2="MRT_250941TRF_17_4332A.2" linecode="LC_MRT_TRF_17_4332A_1" length=0.001 units=km 

New "Transformer.TRF_17_2175A" phases=3 windings=2 buses=["272921.1.2.3" "ET17_2175.1.2.3.4"] conns=[Delta Wye] kvs=[23.1 0.38]  kvas=[75 75] %loadloss=3.840000 %noloadloss=0.966667
New "Reactor.TRF_17_2175A_R" phases=1 bus1=ET17_2175.4 R=15 X=0 basefreq=60

New "Transformer.TRF_17_3992A" phases=3 windings=2 buses=["272081.1.2.3" "ET17_3992.1.2.3.4"] conns=[Delta Wye] kvs=[23.1 0.38]  kvas=[30 30] %loadloss=2.100000 %noloadloss=0.533333
New "Reactor.TRF_17_3992A_R" phases=1 bus1=ET17_3992.4 R=15 X=0 basefreq=60

